Version 4
SHEET 1 1756 680
WIRE -672 -192 -864 -192
WIRE -448 -192 -544 -192
WIRE -432 -192 -448 -192
WIRE -368 -192 -432 -192
WIRE -272 -192 -368 -192
WIRE -96 -192 -272 -192
WIRE -512 -160 -544 -160
WIRE -496 -160 -512 -160
WIRE -96 -160 -96 -192
WIRE -32 -160 -96 -160
WIRE 400 -160 48 -160
WIRE -272 -144 -272 -192
WIRE -672 -128 -752 -128
WIRE -480 -128 -544 -128
WIRE -448 -112 -448 -192
WIRE -368 -112 -368 -192
WIRE 560 -112 544 -112
WIRE 320 -96 288 -96
WIRE 336 -96 320 -96
WIRE 400 -96 400 -160
WIRE 480 -96 400 -96
WIRE 32 -80 -32 -80
WIRE 224 -80 96 -80
WIRE 480 -80 480 -96
WIRE 656 -80 544 -80
WIRE 400 -64 400 -96
WIRE 400 -64 288 -64
WIRE 656 -48 656 -80
WIRE 720 -48 656 -48
WIRE 832 -48 800 -48
WIRE 896 -48 832 -48
WIRE 992 -48 896 -48
WIRE -272 -32 -272 -64
WIRE -480 16 -480 -128
WIRE -448 16 -448 -48
WIRE -448 16 -480 16
WIRE -368 16 -368 -32
WIRE -368 16 -448 16
WIRE 832 16 832 -48
WIRE 992 16 992 -48
WIRE 496 32 336 32
WIRE 560 32 496 32
WIRE -32 48 -32 -80
WIRE 16 48 -32 48
WIRE 160 48 80 48
WIRE 224 48 160 48
WIRE 320 64 288 64
WIRE 336 64 336 32
WIRE 336 64 320 64
WIRE 560 64 544 64
WIRE 208 80 192 80
WIRE 224 80 208 80
WIRE -288 112 -384 112
WIRE 160 112 160 48
WIRE 160 112 -288 112
WIRE 928 112 896 112
WIRE 320 128 320 64
WIRE 400 128 400 -64
WIRE 928 128 928 112
WIRE -288 144 -288 112
WIRE 832 144 832 80
WIRE 992 144 992 96
WIRE 896 160 896 112
WIRE 928 192 928 128
WIRE 1056 192 928 192
WIRE -864 208 -864 -192
WIRE -672 208 -864 208
WIRE -464 208 -544 208
WIRE -384 208 -384 112
WIRE -384 208 -464 208
WIRE 320 208 320 192
WIRE 400 208 400 192
WIRE -384 224 -384 208
WIRE 912 224 896 224
WIRE -512 240 -544 240
WIRE -32 240 -32 48
WIRE -16 240 -32 240
WIRE 80 240 64 240
WIRE 928 240 928 192
WIRE 944 240 928 240
WIRE 1056 256 1056 192
WIRE 1056 256 1008 256
WIRE 1104 256 1056 256
WIRE -864 272 -864 208
WIRE -752 272 -752 -128
WIRE -672 272 -752 272
WIRE -512 272 -544 272
WIRE -288 272 -288 224
WIRE -32 272 -32 240
WIRE 80 272 80 240
WIRE 240 272 192 272
WIRE 352 272 320 272
WIRE 656 272 656 -48
WIRE 688 272 656 272
WIRE 784 272 768 272
WIRE 816 272 784 272
WIRE 912 272 912 224
WIRE 912 272 896 272
WIRE 944 272 912 272
WIRE -512 336 -512 272
WIRE -384 336 -384 304
WIRE -384 336 -512 336
WIRE 576 352 192 352
WIRE 656 352 656 272
WIRE 656 352 576 352
WIRE -864 368 -864 352
WIRE -752 368 -752 272
WIRE -752 368 -864 368
WIRE -32 384 -32 352
WIRE 80 384 80 352
WIRE 80 384 -32 384
WIRE -864 400 -864 368
WIRE 256 400 208 400
WIRE 368 400 336 400
WIRE 576 400 576 352
WIRE 784 400 784 272
WIRE 944 400 784 400
WIRE 1104 400 1104 256
WIRE 1104 400 1008 400
WIRE -32 416 -32 384
WIRE 400 480 208 480
WIRE 496 480 496 32
WIRE 496 480 400 480
WIRE 400 512 400 480
WIRE 576 512 576 480
WIRE 400 624 400 592
FLAG -32 416 0
FLAG 400 208 0
FLAG 832 144 0
FLAG 992 144 0
FLAG -864 400 0
FLAG 560 -112 SCR_G1
FLAG 352 272 SCR_G1
FLAG 320 208 0
FLAG 368 400 SCR_G2
FLAG 544 64 SCR_G2
FLAG -432 -192 VEE2
FLAG -464 208 VEE1
FLAG -288 272 0
FLAG -272 -32 0
FLAG 576 512 0
FLAG 400 624 0
FLAG 896 -48 out
FLAG 320 -96 G1
FLAG -512 -160 G1
FLAG 208 80 G2
FLAG -512 240 G2
FLAG 752 576 0
FLAG 832 576 0
FLAG 928 128 0
SYMBOL voltage -32 256 R0
WINDOW 3 -53 -127 VRight 2
WINDOW 123 0 0 Left 2
WINDOW 39 0 0 Left 2
WINDOW 0 -37 3 Left 2
SYMATTR Value SINE(0 120 600 0 0 0 10)
SYMATTR InstName V1
SYMBOL ind 704 -32 R270
WINDOW 0 32 56 VTop 2
WINDOW 3 5 56 VBottom 2
SYMATTR InstName L1
SYMATTR Value 200µ
SYMATTR SpiceLine Ipk=3.8 Rser=0.152 Rpar=18840 Cpar=0 mfg="Coilcraft" pn="DMT2-200-3.8"
SYMBOL cap 816 16 R0
SYMATTR InstName C1
SYMATTR Value 10µ
SYMBOL res 976 0 R0
SYMATTR InstName R1
SYMATTR Value 1k
SYMBOL voltage -864 256 R0
WINDOW 3 -53 -127 Invisible 2
WINDOW 123 0 0 Left 2
WINDOW 39 0 0 Left 2
SYMATTR Value PULSE(0 5 10ns 10ns 10ns 5us 10us 1000)
SYMATTR InstName V2
SYMBOL voltage -384 320 R180
WINDOW 123 0 0 Left 2
WINDOW 39 0 0 Left 2
SYMATTR InstName V4
SYMATTR Value 10
SYMBOL ind2 64 256 R0
SYMATTR InstName L2
SYMATTR Value 200µ
SYMATTR Type ind
SYMBOL res 80 224 R90
WINDOW 0 0 56 VBottom 2
WINDOW 3 32 56 VTop 2
SYMATTR InstName R2
SYMATTR Value 0.1
SYMBOL ind2 176 256 R0
SYMATTR InstName L3
SYMATTR Value 1µ
SYMATTR Type ind
SYMBOL res 336 256 R90
WINDOW 0 0 56 VBottom 2
WINDOW 3 32 56 VTop 2
SYMATTR InstName R3
SYMATTR Value 10
SYMBOL ind2 224 496 R180
WINDOW 0 36 80 Left 2
WINDOW 3 36 40 Left 2
SYMATTR InstName L4
SYMATTR Value 1µ
SYMATTR Type ind
SYMBOL res 352 384 R90
WINDOW 0 0 56 VBottom 2
WINDOW 3 32 56 VTop 2
SYMATTR InstName R6
SYMATTR Value 10
SYMBOL voltage -368 -16 R180
WINDOW 123 0 0 Left 2
WINDOW 39 0 0 Left 2
SYMATTR InstName V5
SYMATTR Value 10
SYMBOL res -288 -160 R0
SYMATTR InstName R4
SYMATTR Value 1Meg
SYMBOL res -304 128 R0
SYMATTR InstName R5
SYMATTR Value 1Meg
SYMBOL res 560 384 R0
SYMATTR InstName R7
SYMATTR Value 1Meg
SYMBOL res 384 496 R0
SYMATTR InstName R8
SYMATTR Value 1Meg
SYMBOL diode 416 192 R180
WINDOW 0 24 64 Left 2
WINDOW 3 249 -3 Right 2
SYMATTR InstName D2
SYMATTR Value RFN20T2D
SYMBOL diode 32 -64 R270
WINDOW 0 32 32 VTop 2
WINDOW 3 0 32 VBottom 2
SYMATTR InstName D1
SYMATTR Value RFN20T2D
SYMBOL diode 80 32 R90
WINDOW 0 0 32 VBottom 2
WINDOW 3 32 32 VTop 2
SYMATTR InstName D3
SYMATTR Value RFN20T2D
SYMBOL diode 304 128 R0
SYMATTR InstName D4
SYMATTR Value RFN20T2D
SYMBOL res 64 -176 R90
WINDOW 0 0 56 VBottom 2
WINDOW 3 32 56 VTop 2
SYMATTR InstName R10
SYMATTR Value 0.01
SYMBOL cap -464 -112 R0
SYMATTR InstName C2
SYMATTR Value 1µ
SYMBOL AutoGenerated/Si7430DP 256 -80 R0
SYMATTR InstName U7
SYMBOL AutoGenerated/Si7430DP 256 64 R180
SYMATTR InstName U8
SYMBOL AutoGenerated/acpl-p346 -608 -160 R0
SYMATTR InstName U9
SYMBOL AutoGenerated/S6015L 512 -96 R0
SYMATTR InstName U11
SYMBOL AutoGenerated/S6015L 592 48 R180
SYMATTR InstName U12
SYMBOL AutoGenerated/acpl-p346 -608 240 R0
SYMATTR InstName U10
SYMBOL Opamps/opamp 976 192 R0
SYMATTR InstName U1
SYMBOL res 816 448 R90
WINDOW 0 0 56 VBottom 2
WINDOW 3 32 56 VTop 2
SYMATTR InstName R9
SYMATTR Value 1k
SYMBOL res 912 256 R90
WINDOW 0 0 56 VBottom 2
WINDOW 3 32 56 VTop 2
SYMATTR InstName R11
SYMATTR Value 1k
SYMBOL cap 912 224 R180
WINDOW 0 24 56 Left 2
WINDOW 3 24 8 Left 2
SYMATTR InstName C3
SYMATTR Value 0.1µ
SYMBOL cap 1008 384 R90
WINDOW 0 0 32 VBottom 2
WINDOW 3 32 32 VTop 2
SYMATTR InstName C4
SYMATTR Value 0.1µ
TEXT -64 488 Left 2 !.tran 1ms
TEXT 104 248 Left 2 !K1 L2 L3 L4 1
TEXT -856 -296 Left 2 ;Drive Circuit
TEXT 1168 0 Left 2 !.lib opamp.sub
RECTANGLE Normal -208 496 -1008 -352 2
