Version 4
SHEET 1 1544 1108
WIRE -144 -144 -240 -144
WIRE -144 -112 -144 -144
WIRE -640 -48 -720 -48
WIRE -528 -48 -640 -48
WIRE -320 -48 -400 -48
WIRE -240 -48 -240 -144
WIRE -240 -48 -320 -48
WIRE -240 -32 -240 -48
WIRE -368 -16 -400 -16
WIRE 304 -16 240 -16
WIRE 448 -16 400 -16
WIRE -720 16 -720 -48
WIRE -528 16 -608 16
WIRE -368 16 -400 16
WIRE -144 16 -144 -32
WIRE 240 16 240 -16
WIRE 448 16 448 -16
WIRE 304 32 304 -16
WIRE 352 32 304 32
WIRE 400 32 400 -16
WIRE 400 32 352 32
WIRE 160 64 32 64
WIRE 352 64 256 64
WIRE 432 64 352 64
WIRE 672 64 528 64
WIRE 704 64 672 64
WIRE 816 64 784 64
WIRE 928 64 880 64
WIRE -368 80 -368 16
WIRE -240 80 -240 48
WIRE -240 80 -368 80
WIRE -720 112 -720 96
WIRE -608 112 -608 16
WIRE -608 112 -720 112
WIRE 672 128 672 64
WIRE 720 128 672 128
WIRE -720 144 -720 112
WIRE 672 160 672 128
WIRE 720 160 720 128
WIRE 784 160 720 160
WIRE 896 160 864 160
WIRE 960 160 896 160
WIRE 1056 160 960 160
WIRE -144 224 -240 224
WIRE 896 224 896 160
WIRE 1056 224 1056 160
WIRE 624 240 576 240
WIRE -144 256 -144 224
WIRE 672 288 672 256
WIRE 32 304 32 64
WIRE 672 304 672 288
WIRE -640 320 -720 320
WIRE -528 320 -640 320
WIRE -320 320 -400 320
WIRE -240 320 -240 224
WIRE -240 320 -320 320
WIRE 576 320 576 240
WIRE 608 320 576 320
WIRE 624 320 608 320
WIRE -240 336 -240 320
WIRE -368 352 -400 352
WIRE 896 352 896 288
WIRE 1056 352 1056 304
WIRE -720 384 -720 320
WIRE -528 384 -608 384
WIRE -368 384 -400 384
WIRE -144 384 -144 336
WIRE -368 448 -368 384
WIRE -240 448 -240 416
WIRE -240 448 -368 448
WIRE 32 448 32 384
WIRE 672 448 672 400
WIRE -720 480 -720 464
WIRE -608 480 -608 384
WIRE -608 480 -720 480
WIRE -720 512 -720 480
FLAG 32 448 0
FLAG 672 448 0
FLAG 896 352 0
FLAG 1056 352 0
FLAG 608 320 LG
FLAG 960 160 out
FLAG -720 144 0
FLAG -320 -48 HS
FLAG -144 16 0
FLAG -368 -16 HG
FLAG 352 32 HG
FLAG 352 64 HS
FLAG 928 64 0
FLAG -640 -48 PWM
FLAG -720 512 0
FLAG -320 320 LS
FLAG -144 384 0
FLAG -368 352 LG
FLAG -640 320 PWML
FLAG 672 288 LS
SYMBOL voltage 32 288 R0
WINDOW 3 -53 -127 Invisible 2
WINDOW 123 0 0 Left 2
WINDOW 39 0 0 Left 2
WINDOW 0 -37 3 Left 2
SYMATTR Value SINE(0 170 600 0 0 0 10)
SYMATTR InstName V1
SYMBOL ind 768 176 R270
WINDOW 0 32 56 VTop 2
WINDOW 3 5 56 VBottom 2
SYMATTR InstName L1
SYMATTR Value 33µ
SYMATTR SpiceLine Cpar=0
SYMBOL cap 880 224 R0
SYMATTR InstName C1
SYMATTR Value 10µ
SYMBOL res 1040 208 R0
SYMATTR InstName R1
SYMATTR Value 50
SYMBOL voltage -720 0 R0
WINDOW 3 -53 -127 Invisible 2
WINDOW 123 0 0 Left 2
WINDOW 39 0 0 Left 2
SYMATTR Value PULSE(0 5 10ns 10ns 10ns 7.5us 10us 10000)
SYMATTR InstName V3
SYMBOL voltage -240 64 R180
WINDOW 123 0 0 Left 2
WINDOW 39 0 0 Left 2
SYMATTR InstName V4
SYMATTR Value 12
SYMBOL res -160 -128 R0
SYMATTR InstName R6
SYMATTR Value 1Meg
SYMBOL AutoGenerated/acpl-p346 -464 -16 R0
SYMATTR InstName U4
SYMBOL res 800 48 R90
WINDOW 0 0 56 VBottom 2
WINDOW 3 32 56 VTop 2
SYMATTR InstName R5
SYMATTR Value 10
SYMBOL cap 880 48 R90
WINDOW 0 0 32 VBottom 2
WINDOW 3 32 32 VTop 2
SYMATTR InstName C2
SYMATTR Value 1n
SYMBOL nmos 160 16 M90
SYMATTR InstName M1
SYMATTR Value IPD60R280P7_L0
SYMATTR Prefix X
SYMBOL nmos 528 16 R90
SYMATTR InstName M2
SYMATTR Value IPD60R280P7_L0
SYMATTR Prefix X
SYMBOL nmos 624 400 M180
WINDOW 3 151 -23 Invisible 2
SYMATTR Value IPD60R280P7_L0
SYMATTR InstName M4
SYMATTR Prefix X
SYMBOL nmos 624 160 R0
WINDOW 3 151 -23 Invisible 2
SYMATTR Value IPD60R280P7_L0
SYMATTR InstName M3
SYMATTR Prefix X
SYMBOL voltage -720 368 R0
WINDOW 3 -53 -127 Invisible 2
WINDOW 123 0 0 Left 2
WINDOW 39 0 0 Left 2
SYMATTR Value PULSE(5 0 10ns 10ns 10ns 7.5us 10us 10000)
SYMATTR InstName V5
SYMBOL voltage -240 432 R180
WINDOW 123 0 0 Left 2
WINDOW 39 0 0 Left 2
SYMATTR InstName V6
SYMATTR Value 12
SYMBOL res -160 240 R0
SYMATTR InstName R2
SYMATTR Value 1Meg
SYMBOL AutoGenerated/acpl-p346 -464 352 R0
SYMATTR InstName U1
TEXT 0 520 Left 2 !.tran 8ms
TEXT 120 -112 Left 2 !.model MYSW SW(Ron=0.1 Roff=100Meg Vt=.5 Vh=0)
TEXT -728 -176 Left 2 ;Drive Circuit
TEXT 120 -80 Left 2 !.inc SimulationModel_PSpice_CoolMOS_P7_600V.lib
TEXT 128 -48 Left 2 !.inc OptiMOS3_250V.lib
